docs/case2746wop_TAMU_Updated.EPC
title
!
comments
!
solution parameters
tap    1    tcul  enabled/disabled
phas   1    ps    enabled/disabled
area   1    area  enabled/disabled
svd    1    svd   enabled/disabled
dctap  1    dc    enabled/disabled
gcd    0    gcd   enabled/disabled
jump  0.000200    jumper threshold
toler   0.1000    newton tolerance
sbase 100.0000    system mva base
!
substation data  [ 1718]           no  name
      1  "1 BEK Near P"    : 51.212980 19.177800 0.000000  " "
      2  "3 ELK Elk"    : 53.833765 22.360136 0.000000  " "
      3  "4 JAN Sub"    : 51.761270 19.567643 0.000000  " "
      4  "6 MIL"    : 52.257980 21.270414 0.000000  " "
      5  "10 MOR"    : 52.215282 21.042793 0.000000  " "
      6  "13 MSK"    : 52.289280 20.869541 0.000000  " "
      7  "15 NAR Narew"    : 52.834167 23.761886 0.000000  " "
      8  "Ostroleka"    : 53.151540 21.538187 0.000000  " "
      9  "19 PAB Near "    : 51.688017 19.419561 0.000000  " "
     10  "21 PDE Plock"    : 52.600717 19.680669 0.000000  " "
     11  "23 PIA"    : 52.120440 21.020480 0.000000  " "
     12  "24 PIO Near "    : 51.432817 19.645897 0.000000  " "
     13  "25 PLO"    : 52.741399 20.412390 0.000000  " "
     14  "Belchatow RO"    : 51.267190 19.317650 0.000000  " "
     15  "30 SOC Socha"    : 52.271387 20.230707 0.000000  " "
     16  "31 TRE near "    : 51.139490 18.914690 0.000000  " "
     17  "32 WTO Zabki"    : 52.300503 21.111176 0.000000  " "
     18  "34 ZGI Zgier"    : 51.918277 19.372636 0.000000  " "
     19  "35 ABR Near "    : 51.217380 22.557630 0.000000  " "
     20  "36 BGC Near "    : 50.029741 21.933098 0.000000  " "
     21  "37 CHM Near "    : 50.571710 21.675900 0.000000  " "
     22  "39 CHS Near "    : 51.171112 23.443027 0.000000  " "
     23  "40 KIE Below"    : 50.901790 20.430560 0.000000  " "
     24  "Kozienice KO"    : 51.452460 21.984450 0.000000  " "
     25  "47 KPK Near "    : 50.899010 20.613550 0.000000  " "
     26  "48 KRI Near "    : 49.700467 21.844416 0.000000  " "
     27  "50 LSY Near "    : 51.238800 22.554560 0.000000  " "
     28  "51 MKR Near "    : 50.696397 23.164123 0.000000  " "
     29  "53 OSC Near "    : 50.933410 21.356820 0.000000  " "
     30  "Polaniec PEL"    : 50.435430 21.336820 0.000000  " "
     31  "Pulawy PUL"    : 51.452460 21.984450 0.000000  " "
     32  "61 RAD Near "    : 50.806185 20.481071 0.000000  " "
     33  "62 ROZ Near "    : 51.344634 21.035412 0.000000  " "
     34  "64 RZE Near "    : 50.235914 21.808421 0.000000  " "
     35  "66 STW Stalo"    : 50.521270 22.171220 0.000000  " "
     36  "67 But No Sp"    : 50.550000 22.077340 0.000000  " "
     37  "68 ZAM Near "    : 50.709470 23.276130 0.000000  " "
     38  "69 ANI Near "    : 50.808410 19.001820 0.000000  " "
     39  "70 ATA  Near"    : 50.015250 20.966800 0.000000  " "
     41  "72 BIR Near "    : 50.090830 19.113870 0.000000  " "
     42  "74 BLA Near "    : 50.356410 18.288000 0.000000  " "
     43  "76 BUJ Porab"    : 49.813200 19.054650 0.000000  " "
     44  "Jaworzno BYC"    : 50.205170 19.205350 0.000000  " "
     45  "80 CZT Near "    : 49.930840 18.957680 0.000000  " "
     46  "Opole DBN"    : 50.749470 17.888620 0.000000  " "
     47  "83 GRO Near "    : 50.627920 17.998640 0.000000  " "
     48  "84 HAL Near "    : 50.294320 18.808730 0.000000  " "
     49  "86 HCZ Near "    : 50.778770 19.046210 0.000000  " "
     50  "88 JAM From "    : 50.344310 19.177490 0.000000  " "
     51  "90 JOA Near "    : 50.811730 19.120700 0.000000  " "
     52  "94 KAT Near "    : 50.290520 19.076190 0.000000  " "
     53  "96 KED Below"    : 50.286740 18.288470 0.000000  " "
     54  "98 KHK Near "    : 50.324030 19.216590 0.000000  " "
     55  "100 KLA Near"    : 50.041820 20.913870 0.000000  " "
     56  "102 KOM Near"    : 49.873620 18.921150 0.000000  " "
     57  "laziska KOP "    : 50.132380 18.840400 0.000000  " "
     58  "lagisza LAG,"    : 50.349670 19.141040 0.000000  " "
     59  "108 LOS Near"    : 50.479320 19.535240 0.000000  " "
     60  "110 LUA Near"    : 50.052790 20.005890 0.000000  " "
     61  "111 MOS at E"    : 49.953400 18.564480 0.000000  " "
     62  "113 PRB Near"    : 49.992340 19.278910 0.000000  " "
     63  "115 ROK at F"    : 50.351630 18.843080 0.000000  " "
     64  "Siersza SIE "    : 50.207650 19.461470 0.000000  " "
     65  "Skawina SKA"    : 49.974240 19.801980 0.000000  " "
     66  "120 TAW Near"    : 49.991759 20.958891 0.000000  " "
     67  "122 TCN Near"    : 50.373240 19.184580 0.000000  " "
     68  "124 WAN Near"    : 50.018650 19.987830 0.000000  " "
     69  "Rybnik WIE"    : 50.133690 18.532520 0.000000  " "
     70  "129, between"    : 50.776676 19.082620 0.000000  " "
     71  "131 WRZ"    : 50.777200 19.114970 0.000000  " "
     72  "Porabka-Zar "    : 49.755130 19.111610 0.000000  " "
     74  "Adamow"    : 52.048710 18.322717 0.000000  " "
     75  "136 BOG Near"    : 50.759506 16.238229 0.000000  " "
     76  "137 CPC Near"    : 50.889672 15.653810 0.000000  " "
     77  "138 CRN"    : 51.380927 16.297783 0.000000  " "
     78  "140 CZE Czer"    : 52.466885 17.496833 0.000000  " "
     79  "141 GLN Gol?"    : 53.477028 14.615081 0.000000  " "
     80  "143 GOR Gorz"    : 52.775002 15.222813 0.000000  " "
     81  "144 WRC/ KLE"    : 50.999257 16.839959 0.000000  " "
     82  "Konin"    : 52.279092 18.259217 0.000000  " "
     83  "Dolna Odra"    : 53.348377 14.622588 0.000000  " "
     84  "152 LES Lesz"    : 51.880647 16.579464 0.000000  " "
     85  "153 LSN Le?n"    : 52.063547 15.279623 0.000000  " "
     86  "Turow MIK"    : 50.948180 14.912550 0.000000  " "
     87  "160 MON - Mo"    : 53.368544 14.907181 0.000000  " "
     88  "162 OSR Near"    : 51.640774 17.908793 0.000000  " "
     89  "163 PAS Near"    : 51.124930 17.027070 0.000000  " "
     90  "Patnow"    : 52.337501 18.236469 0.000000  " "
     91  "168 PKW Pila"    : 53.070379 16.812069 0.000000  " "
     92  "169 PLC Poli"    : 53.593514 14.564555 0.000000  " "
     93  "170 PLE"    : 52.418031 16.869637 0.000000  " "
     94  "174 POL"    : 51.524006 16.070109 0.000000  " "
     95  "176 PPD Swar"    : 52.344681 17.048740 0.000000  " "
     96  "177 SWI Near"    : 50.854700 16.313200 0.000000  " "
     97  "179 ZBK Near"    : 50.588450 16.766434 0.000000  " "
     98  "181 ZUK ?uko"    : 51.674651 15.983180 0.000000  " "
     99  "182 BYD Bydg"    : 53.242478 17.985602 0.000000  " "
    100  "183 DUN Duno"    : 54.109624 16.107485 0.000000  " "
    101  "186 GBL Gdan"    : 54.404751 18.627922 0.000000  " "
    102  "188 GDA Gdan"    : 54.321542 18.440391 0.000000  " "
    103  "190 GRU"    : 53.528536 18.735241 0.000000  " "
    104  "193 JAS Jast"    : 53.216196 18.092276 0.000000  " "
    105  "195 OLM Lomy"    : 53.862963 20.288529 0.000000  " "
    106  "197 OLS Olsz"    : 53.835961 20.464877 0.000000  " "
    107  "199 Intercon"    : 54.470346 16.983621 0.000000  " "
    108  "201 TEL Inst"    : 53.027831 18.671336 0.000000  " "
    109  "203 WLA Wloc"    : 52.680594 19.049370 0.000000  " "
    110  "Zarnowiec"    : 54.742010 18.089240 0.000000  " "
    111  "207 ZYD Zydo"    : 54.057395 16.716077 0.000000  " "
    112  "209"    : 0.000000 0.000000 0.000000  " "
    113  "210"    : 0.000000 0.000000 0.000000  " "
    114  "211"    : 0.000000 0.000000 0.000000  " "
    115  "212"    : 0.000000 0.000000 0.000000  " "
    116  "213"    : 0.000000 0.000000 0.000000  " "
    117  "215"    : 0.000000 0.000000 0.000000  " "
    118  "216"    : 0.000000 0.000000 0.000000  " "
    119  "217"    : 0.000000 0.000000 0.000000  " "
    120  "218"    : 0.000000 0.000000 0.000000  " "
    121  "219"    : 0.000000 0.000000 0.000000  " "
    122  "220"    : 0.000000 0.000000 0.000000  " "
    123  "221"    : 0.000000 0.000000 0.000000  " "
    124  "223"    : 0.000000 0.000000 0.000000  " "
    125  "224"    : 0.000000 0.000000 0.000000  " "
    126  "225"    : 0.000000 0.000000 0.000000  " "
    127  "226"    : 0.000000 0.000000 0.000000  " "
    128  "227"    : 0.000000 0.000000 0.000000  " "
    129  "228"    : 0.000000 0.000000 0.000000  " "
    130  "231"    : 0.000000 0.000000 0.000000  " "
    131  "232"    : 0.000000 0.000000 0.000000  " "
    132  "233"    : 0.000000 0.000000 0.000000  " "
    133  "234"    : 0.000000 0.000000 0.000000  " "
    134  "235"    : 0.000000 0.000000 0.000000  " "
    135  "236"    : 0.000000 0.000000 0.000000  " "
    136  "237"    : 0.000000 0.000000 0.000000  " "
    137  "238"    : 0.000000 0.000000 0.000000  " "
    138  "239"    : 0.000000 0.000000 0.000000  " "
    139  "240"    : 0.000000 0.000000 0.000000  " "
    140  "241"    : 0.000000 0.000000 0.000000  " "
    141  "242"    : 0.000000 0.000000 0.000000  " "
    142  "244"    : 0.000000 0.000000 0.000000  " "
    143  "247"    : 0.000000 0.000000 0.000000  " "
    144  "250"    : 0.000000 0.000000 0.000000  " "
    145  "251"    : 0.000000 0.000000 0.000000  " "
    146  "252"    : 0.000000 0.000000 0.000000  " "
    147  "253"    : 0.000000 0.000000 0.000000  " "
    148  "254"    : 0.000000 0.000000 0.000000  " "
    149  "255"    : 0.000000 0.000000 0.000000  " "
    150  "256"    : 0.000000 0.000000 0.000000  " "
    151  "257"    : 0.000000 0.000000 0.000000  " "
    152  "259"    : 0.000000 0.000000 0.000000  " "
    153  "260"    : 0.000000 0.000000 0.000000  " "
    154  "261"    : 0.000000 0.000000 0.000000  " "
    155  "262"    : 0.000000 0.000000 0.000000  " "
    156  "263"    : 0.000000 0.000000 0.000000  " "
    157  "264"    : 0.000000 0.000000 0.000000  " "
    158  "266"    : 0.000000 0.000000 0.000000  " "
    159  "267"    : 0.000000 0.000000 0.000000  " "
    160  "268"    : 0.000000 0.000000 0.000000  " "
    161  "269"    : 0.000000 0.000000 0.000000  " "
    162  "270"    : 0.000000 0.000000 0.000000  " "
    163  "271"    : 0.000000 0.000000 0.000000  " "
    164  "272"    : 0.000000 0.000000 0.000000  " "
    165  "273"    : 0.000000 0.000000 0.000000  " "
    166  "274"    : 0.000000 0.000000 0.000000  " "
    167  "277"    : 0.000000 0.000000 0.000000  " "
    168  "278"    : 0.000000 0.000000 0.000000  " "
    169  "279"    : 0.000000 0.000000 0.000000  " "
    170  "280"    : 0.000000 0.000000 0.000000  " "
    171  "282"    : 0.000000 0.000000 0.000000  " "
    172  "284"    : 0.000000 0.000000 0.000000  " "
    173  "285"    : 0.000000 0.000000 0.000000  " "
    174  "286"    : 0.000000 0.000000 0.000000  " "
    175  "287"    : 0.000000 0.000000 0.000000  " "
    176  "288"    : 0.000000 0.000000 0.000000  " "
    177  "289"    : 0.000000 0.000000 0.000000  " "
    178  "290"    : 0.000000 0.000000 0.000000  " "
    179  "291"    : 0.000000 0.000000 0.000000  " "
    180  "292"    : 0.000000 0.000000 0.000000  " "
    181  "293"    : 0.000000 0.000000 0.000000  " "
    182  "294"    : 0.000000 0.000000 0.000000  " "
    183  "296"    : 0.000000 0.000000 0.000000  " "
    184  "297"    : 0.000000 0.000000 0.000000  " "
    185  "298"    : 0.000000 0.000000 0.000000  " "
    186  "299"    : 0.000000 0.000000 0.000000  " "
    187  "300"    : 0.000000 0.000000 0.000000  " "
    188  "301"    : 0.000000 0.000000 0.000000  " "
    189  "302"    : 0.000000 0.000000 0.000000  " "
    190  "304"    : 0.000000 0.000000 0.000000  " "
    191  "305"    : 0.000000 0.000000 0.000000  " "
    192  "306"    : 0.000000 0.000000 0.000000  " "
    193  "307"    : 0.000000 0.000000 0.000000  " "
    194  "308"    : 0.000000 0.000000 0.000000  " "
    195  "309"    : 0.000000 0.000000 0.000000  " "
    196  "310"    : 0.000000 0.000000 0.000000  " "
    197  "311"    : 0.000000 0.000000 0.000000  " "
    198  "312"    : 0.000000 0.000000 0.000000  " "
    199  "313"    : 0.000000 0.000000 0.000000  " "
    200  "314"    : 0.000000 0.000000 0.000000  " "
    201  "315"    : 0.000000 0.000000 0.000000  " "
    202  "317"    : 0.000000 0.000000 0.000000  " "
...
bus data  [2746]               ty  vsched   volt     angle    ar zone  vmax   vmin   date_in date_out pid L own st  latitude  longitude island    sdmon   vmax1      vmin1      dvmax subst
      1 "1           " 220.0000 " "  0  :  1 1.080769  1.080769  -5.842457    1    1 1.1000 0.9000   400101   391231   0 0   1 0   0.000000   0.000000     0 0    1.10000    0.90000    0.00000 1 "1 BEK Near Pajeczno& left bottom of ROG"     1 -1 " "  0  " " 
      2 "2           " 220.0000 " "  0  :  1 1.082809  1.082809  -2.404548    1    1 1.1000 0.9000   400101   391231   0 0   1 0   0.000000   0.000000     0 0    1.10000    0.90000    0.00000 1 "1 BEK Near Pajeczno& left bottom of ROG"     1 -1 " "  0  " " 
      3 "3           " 220.0000 " "  0  :  1 1.063366  1.063366  -23.485660    1    1 1.1000 0.9000   400101   391231   0 0   1 0   0.000000   0.000000     0 0    1.10000    0.90000    0.00000 2 "3 ELK Elk"     1 -1 " "  0  " " 
      4 "4           " 220.0000 " "  0  :  1 1.070768  1.070768  -8.914048    1    1 1.1000 0.9000   400101   391231   0 0   1 0   0.000000   0.000000     0 0    1.10000    0.90000    0.00000 3 "4 JAN Sub"     1 -1 " "  0  " " 
      5 "5           " 220.0000 " "  0  :  1 1.070781  1.070781  -8.920646    1    1 1.1000 0.9000   400101   391231   0 0   1 0   0.000000   0.000000     0 0    1.10000    0.90000    0.00000 3 "4 JAN Sub"     1 -1 " "  0  " " 
      6 "6           " 220.0000 " "  0  :  1 1.057674  1.057674  -17.448493    1    1 1.1000 0.9000   400101   391231   0 0   1 0   0.000000   0.000000     0 0    1.10000    0.90000    0.00000 4 "6 MIL"     1 -1 " "  0  " " 
      7 "7           " 220.0000 " "  0  :  1 1.057751  1.057751  -17.445232    1    1 1.1000 0.9000   400101   391231   0 0   1 0   0.000000   0.000000     0 0    1.10000    0.90000    0.00000 4 "6 MIL"     1 -1 " "  0  " " 
      8 "8           " 400.0000 " "  0  :  1 1.018582  1.018582  -15.181525    1    1 1.1000 0.9000   400101   391231   0 0   1 0   0.000000   0.000000     0 0    1.10000    0.90000    0.00000 4 "6 MIL"     1 -1 " "  0  " " 
      9 "9           " 400.0000 " "  0  :  1 1.018617  1.018617  -15.184226    1    1 1.1000 0.9000   400101   391231   0 0   1 0   0.000000   0.000000     0 0    1.10000    0.90000    0.00000 4 "6 MIL"     1 -1 " "  0  " " 
     10 "10          " 220.0000 " "  0  :  1 1.050819  1.050819  -17.414427    1    1 1.1000 0.9000   400101   391231   0 0   1 0   0.000000   0.000000     0 0    1.10000    0.90000    0.00000 5 "10 MOR"     1 -1 " "  0  " " 
     11 "11          " 220.0000 " "  0  :  1 1.050748  1.050748  -17.428382    1    1 1.1000 0.9000   400101   391231   0 0   1 0   0.000000   0.000000     0 0    1.10000    0.90000    0.00000 5 "10 MOR"     1 -1 " "  0  " " 
     12 "12          " 220.0000 " "  0  :  1 1.050787  1.050787  -17.420836    1    1 1.1000 0.9000   400101   391231   0 0   1 0   0.000000   0.000000     0 0    1.10000    0.90000    0.00000 5 "10 MOR"     1 -1 " "  0  " " 
     13 "13          " 400.0000 " "  0  :  1 1.009545  1.009545  -13.383999    1    1 1.1000 0.9000   400101   391231   0 0   1 0   0.000000   0.000000     0 0    1.10000    0.90000    0.00000 6 "13 MSK"     1 -1 " "  0  " " 
     14 "14          " 400.0000 " "  0  :  1 1.009646  1.009646  -13.378400    1    1 1.1000 0.9000   400101   391231   0 0   1 0   0.000000   0.000000     0 0    1.10000    0.90000    0.00000 6 "13 MSK"     1 -1 " "  0  " " 
     15 "15          " 400.0000 " "  0  :  1 1.028133  1.028133  -16.549107    1    1 1.1000 0.9000   400101   391231   0 0   1 0   0.000000   0.000000     0 0    1.10000    0.90000    0.00000 7 "15 NAR Narewka"     1 -1 " "  0  " " 
     16 "16          " 400.0000 " "  0  :  1 1.028133  1.028133  -16.549107    1    1 1.1000 0.9000   400101   391231   0 0   1 0   0.000000   0.000000     0 0    1.10000    0.90000    0.00000 7 "15 NAR Narewka"     1 -1 " "  0  " " 
     17 "Ostroleka   " 220.0000 " "  0  :  2 1.090880 1.090880  -19.427206    1    1 1.1000 0.9000   400101   391231   0 0   1 0   0.000000   0.000000     0 0    1.10000    0.90000    0.00000 8 "Ostroleka"     1 -1 " "  0  " " 
     18 "Ostroleka   " 220.0000 " "  0  :  2 1.090910 1.090910  -19.428658    1    1 1.1000 0.9000   400101   391231   0 0   1 0   0.000000   0.000000     0 0    1.10000    0.90000    0.00000 8 "Ostroleka"     1 -1 " "  0  " " 
     19 "19          " 220.0000 " "  0  :  1 1.074191  1.074191  -8.094314    1    1 1.1000 0.9000   400101   391231   0 0   1 0   0.000000   0.000000     0 0    1.10000    0.90000    0.00000 9 "19 PAB Near Lodz& Rzgow"     1 -1 " "  0  " " 
     20 "20          " 220.0000 " "  0  :  1 1.074188  1.074188  -8.090384    1    1 1.1000 0.9000   400101   391231   0 0   1 0   0.000000   0.000000     0 0    1.10000    0.90000    0.00000 9 "19 PAB Near Lodz& Rzgow"     1 -1 " "  0  " " 
     21 "21          " 220.0000 " "  0  :  1 1.069617  1.069617  -19.167257    1    1 1.1000 0.9000   400101   391231   0 0   1 0   0.000000   0.000000     0 0    1.10000    0.90000    0.00000 10 "21 PDE Plock"     1 -1 " "  0  " " 
     22 "22          " 220.0000 " "  0  :  1 1.069617  1.069617  -19.167257    1    1 1.1000 0.9000   400101   391231   0 0   1 0   0.000000   0.000000     0 0    1.10000    0.90000    0.00000 10 "21 PDE Plock"     1 -1 " "  0  " " 
     23 "23          " 220.0000 " "  0  :  1 1.051391  1.051391  -17.347989    1    1 1.1000 0.9000   400101   391231   0 0   1 0   0.000000   0.000000     0 0    1.10000    0.90000    0.00000 11 "23 PIA"     1 -1 " "  0  " " 
     24 "24          " 220.0000 " "  0  :  1 1.076861  1.076861  -5.979081    1    1 1.1000 0.9000   400101   391231   0 0   1 0   0.000000   0.000000     0 0    1.10000    0.90000    0.00000 12 "24 PIO Near LODZ, Piotrkow"     1 -1 " "  0  " " 
     25 "25          " 400.0000 " "  0  :  1 1.010652  1.010652  -18.092129    1    1 1.1000 0.9000   400101   391231   0 0   1 0   0.000000   0.000000     0 0    1.10000    0.90000    0.00000 13 "25 PLO"     1 -1 " "  0  " " 
     26 "Belchatow   " 220.0000 " "  0  :  2 1.090910 1.090910  -5.652584    1    1 1.1000 0.9000   400101   391231   0 0   1 0   0.000000   0.000000     0 0    1.10000    0.90000    0.00000 14 "Belchatow ROG"     1 -1 " "  0  " " 
     27 "Belchatow   " 220.0000 " "  0  :  2 1.090910 1.090910  -2.180448    1    1 1.1000 0.9000   400101   391231   0 0   1 0   0.000000   0.000000     0 0    1.10000    0.90000    0.00000 14 "Belchatow ROG"     1 -1 " "  0  " " 
     28 "Belchatow   " 400.0000 " "  0  :  0 1.032500 1.032500  -4.410000    1    1 1.1000 0.9000   400101   391231   0 0   1 0   0.000000   0.000000     0 0    1.10000    0.90000    0.00000 14 "Belchatow ROG"     1 -1 " "  0  " " 
     29 "Belchatow   " 400.0000 " "  0  :  2 1.032500 1.032489  -4.400697    1    1 1.1000 0.9000   400101   391231   0 0   1 0   0.000000   0.000000     0 0    1.10000    0.90000    0.00000 14 "Belchatow ROG"     1 -1 " "  0  " " 
     30 "30          " 220.0000 " "  0  :  1 1.056769  1.056769  -18.616588    1    1 1.1000 0.9000   400101   391231   0 0   1 0   0.000000   0.000000     0 0    1.10000    0.90000    0.00000 15 "30 SOC Sochaczew"     1 -1 " "  0  " " 
     31 "31          " 400.0000 " "  0  :  1 1.033155  1.033155  -5.456010    1    1 1.1000 0.9000   400101   391231   0 0   1 0   0.000000   0.000000     0 0    1.10000    0.90000    0.00000 16 "31 TRE near klobuck & Wielun"     1 -1 " "  0  " " 
     32 "32          " 220.0000 " "  0  :  1 1.048645  1.048645  -17.569259    1    1 1.1000 0.9000   400101   391231   0 0   1 0   0.000000   0.000000     0 0    1.10000    0.90000    0.00000 17 "32 WTO Zabki"     1 -1 " "  0  " " 
     33 "33          " 220.0000 " "  0  :  1 1.076866  1.076866  -5.978155    1    1 1.1000 0.9000   400101   391231   0 0   1 0   0.000000   0.000000     0 0    1.10000    0.90000    0.00000 12 "24 PIO Near LODZ, Piotrkow"     1 -1 " "  0  " " 
     34 "34          " 220.0000 " "  0  :  1 1.071597  1.071597  -11.888018    1    1 1.1000 0.9000   400101   391231   0 0   1 0   0.000000   0.000000     0 0    1.10000    0.90000    0.00000 18 "34 ZGI Zgierz"     1 -1 " "  0  " " 
     35 "35          " 220.0000 " "  0  :  1 1.090920  1.090920  -15.145922    1    2 1.1000 0.9000   400101   391231   0 0   1 0   0.000000   0.000000     0 0    1.10000    0.90000    0.00000 19 "35 ABR Near Lublin & Poniatowa"     1 -1 " "  0  " " 
     36 "36          " 220.0000 " "  0  :  1 1.081556  1.081556  -15.550118    1    2 1.1000 0.9000   400101   391231   0 0   1 0   0.000000   0.000000     0 0    1.10000    0.90000    0.00000 20 "36 BGC Near Rzeszow & Ropczyce"     1 -1 " "  0  " " 
     37 "37          " 220.0000 " "  0  :  1 1.089871  1.089871  -14.569638    1    2 1.1000 0.9000   400101   391231   0 0   1 0   0.000000   0.000000     0 0    1.10000    0.90000    0.00000 21 "37 CHM Near Tarnobrzeg"     1 -1 " "  0  " " 
     38 "38          " 220.0000 " "  0  :  1 1.089849  1.089849  -14.572500    1    2 1.1000 0.9000   400101   391231   0 0   1 0   0.000000   0.000000     0 0    1.10000    0.90000    0.00000 21 "37 CHM Near Tarnobrzeg"     1 -1 " "  0  " " 
     39 "39          " 220.0000 " "  0  :  1 1.085547  1.085547  -16.204890    1    2 1.1000 0.9000   400101   391231   0 0   1 0   0.000000   0.000000     0 0    1.10000    0.90000    0.00000 22 "39 CHS Near Chelm, Sawin"     1 -1 " "  0  " " 
     40 "40          " 220.0000 " "  0  :  1 1.102912  1.102912  -13.811252    1    2 1.1000 0.9000   400101   391231   0 0   1 0   0.000000   0.000000     0 0    1.10000    0.90000    0.00000 23 "40 KIE Below Konskie"     1 -1 " "  0  " " 
     41 "41          " 220.0000 " "  0  :  1 1.102827  1.102827  -13.814313    1    2 1.1000 0.9000   400101   391231   0 0   1 0   0.000000   0.000000     0 0    1.10000    0.90000    0.00000 23 "40 KIE Below Konskie"     1 -1 " "  0  " " 
     42 "42          " 400.0000 " "  0  :  1 1.021564  1.021564  -13.876135    1    2 1.1000 0.9000   400101   391231   0 0   1 0   0.000000   0.000000     0 0    1.10000    0.90000    0.00000 23 "40 KIE Below Konskie"     1 -1 " "  0  " " 
     43 "Kozienice   " 220.0000 " "  0  :  2 1.090910 1.090995  -13.754589    1    2 1.1000 0.9000   400101   391231   0 0   1 0   0.000000   0.000000     0 0    1.10000    0.90000    0.00000 24 "Kozienice KOZ"     1 -1 " "  0  " " 
     44 "Kozienice   " 220.0000 " "  0  :  2 1.090960 1.090960  -13.738987    1    2 1.1000 0.9000   400101   391231   0 0   1 0   0.000000   0.000000     0 0    1.10000    0.90000    0.00000 24 "Kozienice KOZ"     1 -1 " "  0  " " 
     45 "Kozienice   " 400.0000 " "  0  :  2 1.032500 1.032500  -13.607627    1    2 1.1000 0.9000   400101   391231   0 0   1 0   0.000000   0.000000     0 0    1.10000    0.90000    0.00000 24 "Kozienice KOZ"     1 -1 " "  0  " " 
     46 "46          " 400.0000 " "  0  :  1 1.032454  1.032454  -13.609594    1    2 1.1000 0.9000   400101   391231   0 0   1 0   0.000000   0.000000     0 0    1.10000    0.90000    0.00000 24 "Kozienice KOZ"     1 -1 " "  0  " " 
     47 "47          " 220.0000 " "  0  :  1 1.101644  1.101644  -14.248797    1    2 1.1000 0.9000   400101   391231   0 0   1 0   0.000000   0.000000     0 0    1.10000    0.90000    0.00000 25 "47 KPK Near Kielce"     1 -1 " "  0  " " 
     48 "48          " 400.0000 " "  0  :  1 1.026138  1.026138  -17.596288    1    2 1.1000 0.9000   400101   391231   0 0   1 0   0.000000   0.000000     0 0    1.10000    0.90000    0.00000 26 "48 KRI Near Krosno & Brzozow"     1 -1 " "  0  " " 
     49 "49          " 400.0000 " "  0  :  1 1.026116  1.026116  -17.601981    1    2 1.1000 0.9000   400101   391231   0 0   1 0   0.000000   0.000000     0 0    1.10000    0.90000    0.00000 26 "48 KRI Near Krosno & Brzozow"     1 -1 " "  0  " " 
     50 "50          " 400.0000 " "  0  :  1 1.028012  1.028012  -14.109465    1    2 1.1000 0.9000   400101   391231   0 0   1 0   0.000000   0.000000     0 0    1.10000    0.90000    0.00000 27 "50 LSY Near Lublin"     1 -1 " "  0  " " 
     51 "51          " 220.0000 " "  0  :  1 1.086173  1.086173  -15.320061    1    2 1.1000 0.9000   400101   391231   0 0   1 0   0.000000   0.000000     0 0    1.10000    0.90000    0.00000 28 "51 MKR Near Szczebrzeszyn"     1 -1 " "  0  " " 
     52 "52          " 220.0000 " "  0  :  1 1.086178  1.086178  -15.316911    1    2 1.1000 0.9000   400101   391231   0 0   1 0   0.000000   0.000000     0 0    1.10000    0.90000    0.00000 28 "51 MKR Near Szczebrzeszyn"     1 -1 " "  0  " " 
     53 "53          " 400.0000 " "  0  :  1 1.034985  1.034985  -14.375408    1    2 1.1000 0.9000   400101   391231   0 0   1 0   0.000000   0.000000     0 0    1.10000    0.90000    0.00000 29 "53 OSC Near Ostrowiec, Cmielow"     1 -1 " "  0  " " 
     54 "54          " 400.0000 " "  0  :  1 1.035005  1.035005  -14.375702    1    2 1.1000 0.9000   400101   391231   0 0   1 0   0.000000   0.000000     0 0    1.10000    0.90000    0.00000 29 "53 OSC Near Ostrowiec, Cmielow"     1 -1 " "  0  " " 
     55 "Polaniec    " 220.0000 " "  0  :  2 1.091210 1.091732  -13.677402    1    2 1.1000 0.9000   400101   391231   0 0   1 0   0.000000   0.000000     0 0    1.10000    0.90000    0.00000 30 "Polaniec PEL"     1 -1 " "  0  " " 
     56 "Polaniec    " 220.0000 " "  0  :  2 1.091150 1.091712  -13.677351    1    2 1.1000 0.9000   400101   391231   0 0   1 0   0.000000   0.000000     0 0    1.10000    0.90000    0.00000 30 "Polaniec PEL"     1 -1 " "  0  " " 
     57 "Polaniec    " 400.0000 " "  0  :  2 1.033360 1.037064  -14.001355    1    2 1.1000 0.9000   400101   391231   0 0   1 0   0.000000   0.000000     0 0    1.10000    0.90000    0.00000 30 "Polaniec PEL"     1 -1 " "  0  " " 
     58 "Polaniec    " 400.0000 " "  0  :  2 1.033360 1.037050  -14.006141    1    2 1.1000 0.9000   400101   391231   0 0   1 0   0.000000   0.000000     0 0    1.10000    0.90000    0.00000 30 "Polaniec PEL"     1 -1 " "  0  " " 
     59 "Pulawy      " 220.0000 " "  0  :  2 1.084150 1.084401  -14.798719    1    2 1.1000 0.9000   400101   391231   0 0   1 0   0.000000   0.000000     0 0    1.10000    0.90000    0.00000 31 "Pulawy PUL"     1 -1 " "  0  " " 
     60 "60          " 220.0000 " "  0  :  1 1.084475  1.084475  -14.794690    1    2 1.1000 0.9000   400101   391231   0 0   1 0   0.000000   0.000000     0 0    1.10000    0.90000    0.00000 31 "Pulawy PUL"     1 -1 " "  0  " " 
     61 "61          " 220.0000 " "  0  :  1 1.097770  1.097770  -14.381888    1    2 1.1000 0.9000   400101   391231   0 0   1 0   0.000000   0.000000     0 0    1.10000    0.90000    0.00000 32 "61 RAD Near Checiney & Kielce"     1 -1 " "  0  " " 
     62 "62          " 220.0000 " "  0  :  1 1.090228  1.090228  -14.564088    1    2 1.1000 0.9000   400101   391231   0 0   1 0   0.000000   0.000000     0 0    1.10000    0.90000    0.00000 33 "62 ROZ Near Radom, Skaryszew"     1 -1 " "  0  " " 
     63 "63          " 220.0000 " "  0  :  1 1.090201  1.090201  -14.565915    1    2 1.1000 0.9000   400101   391231   0 0   1 0   0.000000   0.000000     0 0    1.10000    0.90000    0.00000 33 "62 ROZ Near Radom, Skaryszew"     1 -1 " "  0  " " 
     64 "64          " 400.0000 " "  0  :  1 1.036749  1.036749  -15.240286    1    2 1.1000 0.9000   400101   391231   0 0   1 0   0.000000   0.000000     0 0    1.10000    0.90000    0.00000 34 "64 RZE Near Glogow Malopol-ski & Kolbuozowa"     1 -1 " "  0  " " 
     65 "65          " 400.0000 " "  0  :  1 1.036711  1.036711  -15.251238    1    2 1.1000 0.9000   400101   391231   0 0   1 0   0.000000   0.000000     0 0    1.10000    0.90000    0.00000 34 "64 RZE Near Glogow Malopol-ski & Kolbuozowa"     1 -1 " "  0  " " 
     66 "66          " 220.0000 " "  0  :  1 1.088887  1.088887  -15.334540    1    2 1.1000 0.9000   400101   391231   0 0   1 0   0.000000   0.000000     0 0    1.10000    0.90000    0.00000 35 "66 STW Stalowa Wola"     1 -1 " "  0  " " 
     67 "67          " 220.0000 " "  0  :  1 1.089892  1.089892  -15.177804    1    2 1.1000 0.9000   400101   391231   0 0   1 0   0.000000   0.000000     0 0    1.10000    0.90000    0.00000 36 "67 But No Specific Name& Near Stalowa Wala"     1 -1 " "  0  " " 
     68 "68          " 220.0000 " "  0  :  1 1.086283  1.086283  -14.635790    1    2 1.1000 0.9000   400101   391231   0 0   1 0   0.000000   0.000000     0 0    1.10000    0.90000    0.00000 37 "68 ZAM Near Zamos, Szczebrzeszyn"     1 -1 " "  0  " " 
     69 "69          " 220.0000 " "  0  :  1 1.084615  1.084615  -9.408718    1    3 1.1000 0.9000   400101   391231   0 0   1 0   0.000000   0.000000     0 0    1.10000    0.90000    0.00000 38 "69 ANI Near Blachownia & Wreczyca"     1 -1 " "  0  " " 
     70 "70          " 220.0000 " "  0  :  1 1.095187  1.095187  -14.823342    1    3 1.1000 0.9000   400101   391231   0 0   1 0   0.000000   0.000000     0 0    1.10000    0.90000    0.00000 39 "70 ATA  Near Tarnow, Debica"     1 -1 " "  0  " " 
     71 "71          " 220.0000 " "  0  :  1 1.095056  1.095056  -14.831197    1    3 1.1000 0.9000   400101   391231   0 0   1 0   0.000000   0.000000     0 0    1.10000    0.90000    0.00000 39 "70 ATA  Near Tarnow, Debica"     1 -1 " "  0  " " 
     72 "72          " 220.0000 " "  0  :  1 1.087576  1.087576  -13.585092    1    3 1.1000 0.9000   400101   391231   0 0   1 0   0.000000   0.000000     0 0    1.10000    0.90000    0.00000 41 "72 BIR Near Bierun"     1 -1 " "  0  " " 
     73 "73          " 220.0000 " "  0  :  1 1.087609  1.087609  -13.569385    1    3 1.1000 0.9000   400101   391231   0 0   1 0   0.000000   0.000000     0 0    1.10000    0.90000    0.00000 41 "72 BIR Near Bierun"     1 -1 " "  0  " " 
     74 "74          " 220.0000 " "  0  :  1 1.087854  1.087854  -10.943293    1    3 1.1000 0.9000   400101   391231   0 0   1 0   0.000000   0.000000     0 0    1.10000    0.90000    0.00000 42 "74 BLA Near KEDZIERZYN KOZLE"     1 -1 " "  0  " " 
     75 "75          " 220.0000 " "  0  :  1 1.087836  1.087836  -10.948461    1    3 1.1000 0.9000   400101   391231   0 0   1 0   0.000000   0.000000     0 0    1.10000    0.90000    0.00000 42 "74 BLA Near KEDZIERZYN KOZLE"     1 -1 " "  0  " " 
     76 "76          " 220.0000 " "  0  :  1 1.085714  1.085714  -18.030129    1    3 1.1000 0.9000   400101   391231   0 0   1 0   0.000000   0.000000     0 0    1.10000    0.90000    0.00000 43 "76 BUJ Porabka- Zar Near BIELSKO-BIAL"     1 -1 " "  0  " " 
     77 "77          " 220.0000 " "  0  :  1 1.085685  1.085685  -18.042410    1    3 1.1000 0.9000   400101   391231   0 0   1 0   0.000000   0.000000     0 0    1.10000    0.90000    0.00000 43 "76 BUJ Porabka- Zar Near BIELSKO-BIAL"     1 -1 " "  0  " " 
     78 "Jaworzno    " 220.0000 " "  0  :  2 1.090910 1.090910  -12.507303    1    3 1.1000 0.9000   400101   391231   0 0   1 0   0.000000   0.000000     0 0    1.10000    0.90000    0.00000 44 "Jaworzno BYC"     1 -1 " "  0  " " 
     79 "Jaworzno    " 220.0000 " "  0  :  2 1.090340 1.090340  -13.073292    1    3 1.1000 0.9000   400101   391231   0 0   1 0   0.000000   0.000000     0 0    1.10000    0.90000    0.00000 44 "Jaworzno BYC"     1 -1 " "  0  " " 
     80 "80          " 220.0000 " "  0  :  1 1.081762  1.081762  -12.842772    1    3 1.1000 0.9000   400101   391231   0 0   1 0   0.000000   0.000000     0 0    1.10000    0.90000    0.00000 45 "80 CZT Near Osiek,Kaniow"     1 -1 " "  0  " " 
     81 "81          " 220.0000 " "  0  :  1 1.081791  1.081791  -12.846358    1    3 1.1000 0.9000   400101   391231   0 0   1 0   0.000000   0.000000     0 0    1.10000    0.90000    0.00000 45 "80 CZT Near Osiek,Kaniow"     1 -1 " "  0  " " 
     82 "Opole       " 400.0000 " "  0  :  2 1.029930 1.031186  -6.635393    1    3 1.1000 0.9000   400101   391231   0 0   1 0   0.000000   0.000000     0 0    1.10000    0.90000    0.00000 46 "Opole DBN"     1 -1 " "  0  " " 
     83 "83          " 220.0000 " "  0  :  1 1.088419  1.088419  -10.552870    1    3 1.1000 0.9000   400101   391231   0 0   1 0   0.000000   0.000000     0 0    1.10000    0.90000    0.00000 47 "83 GRO Near Opole & Proszkow"     1 -1 " "  0  " " 
     84 "84          " 220.0000 " "  0  :  1 1.088513  1.088513  -11.628320    1    3 1.1000 0.9000   400101   391231   0 0   1 0   0.000000   0.000000     0 0    1.10000    0.90000    0.00000 48 "84 HAL Near Gliwice, Fortum Silesia SA"     1 -1 " "  0  " " 
     85 "85          " 220.0000 " "  0  :  1 1.088509  1.088509  -11.638192    1    3 1.1000 0.9000   400101   391231   0 0   1 0   0.000000   0.000000     0 0    1.10000    0.90000    0.00000 48 "84 HAL Near Gliwice, Fortum Silesia SA"     1 -1 " "  0  " " 
     86 "86          " 220.0000 " "  0  :  1 1.085016  1.085016  -9.488955    1    3 1.1000 0.9000   400101   391231   0 0   1 0   0.000000   0.000000     0 0    1.10000    0.90000    0.00000 49 "86 HCZ Near Blachownia"     1 -1 " "  0  " " 
     87 "87          " 220.0000 " "  0  :  1 1.085006  1.085006  -9.494274    1    3 1.1000 0.9000   400101   391231   0 0   1 0   0.000000   0.000000     0 0    1.10000    0.90000    0.00000 49 "86 HCZ Near Blachownia"     1 -1 " "  0  " " 
     88 "88          " 220.0000 " "  0  :  1 1.085065  1.085065  -11.606791    1    3 1.1000 0.9000   400101   391231   0 0   1 0   0.000000   0.000000     0 0    1.10000    0.90000    0.00000 50 "88 JAM From LAG & Near Sosnowiece"     1 -1 " "  0  " " 
     89 "89          " 220.0000 " "  0  :  1 1.085057  1.085057  -11.613916    1    3 1.1000 0.9000   400101   391231   0 0   1 0   0.000000   0.000000     0 0    1.10000    0.90000    0.00000 50 "88 JAM From LAG & Near Sosnowiece"     1 -1 " "  0  " " 
     90 "90          " 220.0000 " "  0  :  1 1.087144  1.087144  -9.037134    1    3 1.1000 0.9000   400101   391231   0 0   1 0   0.000000   0.000000     0 0    1.10000    0.90000    0.00000 51 "90 JOA Near Czestochowa"     1 -1 " "  0  " " 
     91 "91          " 220.0000 " "  0  :  1 1.087148  1.087148  -9.032723    1    3 1.1000 0.9000   400101   391231   0 0   1 0   0.000000   0.000000     0 0    1.10000    0.90000    0.00000 51 "90 JOA Near Czestochowa"     1 -1 " "  0  " " 
     92 "92          " 400.0000 " "  0  :  1 1.035285  1.035285  -6.763576    1    3 1.1000 0.9000   400101   391231   0 0   1 0   0.000000   0.000000     0 0    1.10000    0.90000    0.00000 51 "90 JOA Near Czestochowa"     1 -1 " "  0  " " 
     93 "93          " 400.0000 " "  0  :  1 1.035286  1.035286  -6.763866    1    3 1.1000 0.9000   400101   391231   0 0   1 0   0.000000   0.000000     0 0    1.10000    0.90000    0.00000 51 "90 JOA Near Czestochowa"     1 -1 " "  0  " " 
     94 "94          " 220.0000 " "  0  :  1 1.089434  1.089434  -10.945208    1    3 1.1000 0.9000   400101   391231   0 0   1 0   0.000000   0.000000     0 0    1.10000    0.90000    0.00000 52 "94 KAT Near SOSNOWIEC & Czelad"     1 -1 " "  0  " " 
     95 "95          " 220.0000 " "  0  :  1 1.089435  1.089435  -10.945132    1    3 1.1000 0.9000   400101   391231   0 0   1 0   0.000000   0.000000     0 0    1.10000    0.90000    0.00000 52 "94 KAT Near SOSNOWIEC & Czelad"     1 -1 " "  0  " " 
     96 "96          " 220.0000 " "  0  :  1 1.086765  1.086765  -10.691768    1    3 1.1000 0.9000   400101   391231   0 0   1 0   0.000000   0.000000     0 0    1.10000    0.90000    0.00000 53 "96 KED Below BLA(74)"     1 -1 " "  0  " " 
     97 "97          " 220.0000 " "  0  :  1 1.086780  1.086780  -10.691105    1    3 1.1000 0.9000   400101   391231   0 0   1 0   0.000000   0.000000     0 0    1.10000    0.90000    0.00000 53 "96 KED Below BLA(74)"     1 -1 " "  0  " " 
     98 "98          " 220.0000 " "  0  :  1 1.087891  1.087891  -12.768215    1    3 1.1000 0.9000   400101   391231   0 0   1 0   0.000000   0.000000     0 0    1.10000    0.90000    0.00000 54 "98 KHK Near Olkusz"     1 -1 " "  0  " " 
     99 "99          " 220.0000 " "  0  :  1 1.087880  1.087880  -12.764002    1    3 1.1000 0.9000   400101   391231   0 0   1 0   0.000000   0.000000     0 0    1.10000    0.90000    0.00000 54 "98 KHK Near Olkusz"     1 -1 " "  0  " " 
    100 "100         " 220.0000 " "  0  :  1 1.095226  1.095226  -14.805551    1    3 1.1000 0.9000   400101   391231   0 0   1 0   0.000000   0.000000     0 0    1.10000    0.90000    0.00000 55 "100 KLA Near Tarnow, Zabno"     1 -1 " "  0  " " 
    101 "101         " 220.0000 " "  0  :  1 1.095216  1.095216  -14.807340    1    3 1.1000 0.9000   400101   391231   0 0   1 0   0.000000   0.000000     0 0    1.10000    0.90000    0.00000 55 "100 KLA Near Tarnow, Zabno"     1 -1 " "  0  " " 
    102 "102         " 220.0000 " "  0  :  1 1.085246  1.085246  -17.240156    1    3 1.1000 0.9000   400101   391231   0 0   1 0   0.000000   0.000000     0 0    1.10000    0.90000    0.00000 56 "102 KOM Near CZECHWICE-DZIEDZICE and above Jaworze"     1 -1 " "  0  " " 
    103 "103         " 220.0000 " "  0  :  1 1.085201  1.085201  -17.227776    1    3 1.1000 0.9000   400101   391231   0 0   1 0   0.000000   0.000000     0 0    1.10000    0.90000    0.00000 56 "102 KOM Near CZECHWICE-DZIEDZICE and above Jaworze"     1 -1 " "  0  " " 
    104 "laziska     " 220.0000 " "  0  :  2 1.090910 1.090910  -10.967504    1    3 1.1000 0.9000   400101   391231   0 0   1 0   0.000000   0.000000     0 0    1.10000    0.90000    0.00000 57 "laziska KOP Near Tychy"     1 -1 " "  0  " " 
    105 "laziska     " 220.0000 " "  0  :  2 1.090910 1.090885  -10.980228    1    3 1.1000 0.9000   400101   391231   0 0   1 0   0.000000   0.000000     0 0    1.10000    0.90000    0.00000 57 "laziska KOP Near Tychy"     1 -1 " "  0  " " 
    106 "lagisza     " 220.0000 " "  0  :  2 1.090910 1.090910  -10.829678    1    3 1.1000 0.9000   400101   391231   0 0   1 0   0.000000   0.000000     0 0    1.10000    0.90000    0.00000 58 "lagisza LAG, PKE SA Power Plant"     1 -1 " "  0  " " 
    107 "lagisza     " 220.0000 " "  0  :  2 1.090910 1.090910  -10.832723    1    3 1.1000 0.9000   400101   391231   0 0   1 0   0.000000   0.000000     0 0    1.10000    0.90000    0.00000 58 "lagisza LAG, PKE SA Power Plant"     1 -1 " "  0  " " 
    108 "108         " 220.0000 " "  0  :  1 1.086404  1.086404  -12.266226    1    3 1.1000 0.9000   400101   391231   0 0   1 0   0.000000   0.000000     0 0    1.10000    0.90000    0.00000 59 "108 LOS Near Zawiercie & Pilica"     1 -1 " "  0  " " 
    109 "109         " 220.0000 " "  0  :  1 1.086450  1.086450  -12.279851    1    3 1.1000 0.9000   400101   391231   0 0   1 0   0.000000   0.000000     0 0    1.10000    0.90000    0.00000 59 "108 LOS Near Zawiercie & Pilica"     1 -1 " "  0  " " 
    110 "110         " 220.0000 " "  0  :  1 1.088351  1.088351  -13.962496    1    3 1.1000 0.9000   400101   391231   0 0   1 0   0.000000   0.000000     0 0    1.10000    0.90000    0.00000 60 "110 LUA NearMeichow, Krakow"     1 -1 " "  0  " " 
    111 "111         " 220.0000 " "  0  :  1 1.077042  1.077042  -11.873504    1    3 1.1000 0.9000   400101   391231   0 0   1 0   0.000000   0.000000     0 0    1.10000    0.90000    0.00000 61 "111 MOS at EC Moszczenica Near Orlova"     1 -1 " "  0  " " 
    112 "112         " 220.0000 " "  0  :  1 1.077079  1.077079  -11.878223    1    3 1.1000 0.9000   400101   391231   0 0   1 0   0.000000   0.000000     0 0    1.10000    0.90000    0.00000 61 "111 MOS at EC Moszczenica Near Orlova"     1 -1 " "  0  " " 
    113 "113         " 220.0000 " "  0  :  1 1.083423  1.083423  -13.103272    1    3 1.1000 0.9000   400101   391231   0 0   1 0   0.000000   0.000000     0 0    1.10000    0.90000    0.00000 62 "113 PRB Near Oswiecim, Osiek & above Kety"     1 -1 " "  0  " " 
    114 "114         " 220.0000 " "  0  :  1 1.083477  1.083477  -13.098719    1    3 1.1000 0.9000   400101   391231   0 0   1 0   0.000000   0.000000     0 0    1.10000    0.90000    0.00000 62 "113 PRB Near Oswiecim, Osiek & above Kety"     1 -1 " "  0  " " 
    115 "115         " 400.0000 " "  0  :  1 1.028141  1.028141  -9.387079    1    3 1.1000 0.9000   400101   391231   0 0   1 0   0.000000   0.000000     0 0    1.10000    0.90000    0.00000 63 "115 ROK at Fortum Bytom Power Station & bottom of Tarnowskie Gory"     1 -1 " "  0  " " 
    116 "Siersza     " 220.0000 " "  0  :  2 1.090420 1.090461  -12.861549    1    3 1.1000 0.9000   400101   391231   0 0   1 0   0.000000   0.000000     0 0    1.10000    0.90000    0.00000 64 "Siersza SIE 72"     1 -1 " "  0  " " 
    117 "Siersza     " 220.0000 " "  0  :  2 1.090460 1.090460  -12.852026    1    3 1.1000 0.9000   400101   391231   0 0   1 0   0.000000   0.000000     0 0    1.10000    0.90000    0.00000 64 "Siersza SIE 72"     1 -1 " "  0  " " 
    118 "Skawina     " 220.0000 " "  0  :  2 1.089000 1.094200  -13.553346    1    3 1.1000 0.9000   400101   391231   0 0   1 0   0.000000   0.000000     0 0    1.10000    0.90000    0.00000 65 "Skawina SKA"     1 -1 " "  0  " " 
    119 "119         " 220.0000 " "  0  :  1 1.094194  1.094194  -13.558815    1    3 1.1000 0.9000   400101   391231   0 0   1 0   0.000000   0.000000     0 0    1.10000    0.90000    0.00000 65 "Skawina SKA"     1 -1 " "  0  " " 
    120 "120         " 400.0000 " "  0  :  1 1.038697  1.038697  -13.959498    1    3 1.1000 0.9000   400101   391231   0 0   1 0   0.000000   0.000000     0 0    1.10000    0.90000    0.00000 66 "120 TAW Near Tarnow, Pilzno"     1 -1 " "  0  " " 
    121 "121         " 400.0000 " "  0  :  1 1.038725  1.038725  -13.952174    1    3 1.1000 0.9000   400101   391231   0 0   1 0   0.000000   0.000000     0 0    1.10000    0.90000    0.00000 66 "120 TAW Near Tarnow, Pilzno"     1 -1 " "  0  " " 
    122 "122         " 400.0000 " "  0  :  1 1.031971  1.031971  -9.554154    1    3 1.1000 0.9000   400101   391231   0 0   1 0   0.000000   0.000000     0 0    1.10000    0.90000    0.00000 67 "122 TCN Near Dabrowa Gornicza"     1 -1 " "  0  " " 
    123 "123         " 400.0000 " "  0  :  1 1.032008  1.032008  -9.552589    1    3 1.1000 0.9000   400101   391231   0 0   1 0   0.000000   0.000000     0 0    1.10000    0.90000    0.00000 67 "122 TCN Near Dabrowa Gornicza"     1 -1 " "  0  " " 
    124 "124         " 220.0000 " "  0  :  1 1.088591  1.088591  -13.993625    1    3 1.1000 0.9000   400101   391231   0 0   1 0   0.000000   0.000000     0 0    1.10000    0.90000    0.00000 68 "124 WAN Near Krakow, Wieliczka"     1 -1 " "  0  " " 
    125 "Rybnik      " 220.0000 " "  0  :  2 1.090910 1.090910  -9.907482    1    3 1.1000 0.9000   400101   391231   0 0   1 0   0.000000   0.000000     0 0    1.10000    0.90000    0.00000 69 "Rybnik WIE"     1 -1 " "  0  " " 
    126 "Rybnik      " 220.0000 " "  0  :  2 1.090820 1.090820  -9.915583    1    3 1.1000 0.9000   400101   391231   0 0   1 0   0.000000   0.000000     0 0    1.10000    0.90000    0.00000 69 "Rybnik WIE"     1 -1 " "  0  " " 
    127 "Rybnik      " 400.0000 " "  0  :  2 1.028690 1.028690  -8.281833    1    3 1.1000 0.9000   400101   391231   0 0   1 0   0.000000   0.000000     0 0    1.10000    0.90000    0.00000 69 "Rybnik WIE"     1 -1 " "  0  " " 
    128 "128         " 400.0000 " "  0  :  1 1.028673  1.028673  -8.291893    1    3 1.1000 0.9000   400101   391231   0 0   1 0   0.000000   0.000000     0 0    1.10000    0.90000    0.00000 69 "Rybnik WIE"     1 -1 " "  0  " " 
    129 "129         " 220.0000 " "  0  :  1 1.084705  1.084705  -9.599830    1    3 1.1000 0.9000   400101   391231   0 0   1 0   0.000000   0.000000     0 0    1.10000    0.90000    0.00000 70 "129, between WRZ(113) and HCZ(86)"     1 -1 " "  0  " " 
    130 "130         " 220.0000 " "  0  :  1 1.084717  1.084717  -9.598733    1    3 1.1000 0.9000   400101   391231   0 0   1 0   0.000000   0.000000     0 0    1.10000    0.90000    0.00000 70 "129, between WRZ(113) and HCZ(86)"     1 -1 " "  0  " " 
    131 "131         " 220.0000 " "  0  :  1 1.086182  1.086182  -9.414238    1    3 1.1000 0.9000   400101   391231   0 0   1 0   0.000000   0.000000     0 0    1.10000    0.90000    0.00000 71 "131 WRZ"     1 -1 " "  0  " " 
    132 "Porabka-Zar " 220.0000 " "  0  :  2 1.090910 1.087066  -18.879840    1    3 1.1000 0.9000   400101   391231   0 0   1 0   0.000000   0.000000     0 0    1.10000    0.90000    0.00000 72 "Porabka-Zar ZAP Near Zywiec"     1 -1 " "  0  " " 
    133 "Porabka-Zar " 220.0000 " "  0  :  2 1.090910 1.084956  -18.864366    1    3 1.1000 0.9000   400101   391231   0 0   1 0   0.000000   0.000000     0 0    1.10000    0.90000    0.00000 72 "Porabka-Zar ZAP Near Zywiec"     1 -1 " "  0  " " 
    134 "Adamow      " 220.0000 " "  0  :  2 1.088820 1.088048  -13.818739    1    4 1.1000 0.9000   400101   391231   0 0   1 0   0.000000   0.000000     0 0    1.10000    0.90000    0.00000 74 "Adamow"     1 -1 " "  0  " " 
    135 "Adamow      " 220.0000 " "  0  :  2 1.088670 1.087923  -13.827811    1    4 1.1000 0.9000   400101   391231   0 0   1 0   0.000000   0.000000     0 0    1.10000    0.90000    0.00000 74 "Adamow"     1 -1 " "  0  " " 
    136 "136         " 220.0000 " "  0  :  1 1.079728  1.079728  -16.784353    1    4 1.1000 0.9000   400101   391231   0 0   1 0   0.000000   0.000000     0 0    1.10000    0.90000    0.00000 75 "136 BOG Near Boguszow-Gorce"     1 -1 " "  0  " " 
    137 "137         " 220.0000 " "  0  :  1 1.084160  1.084160  -16.300314    1    4 1.1000 0.9000   400101   391231   0 0   1 0   0.000000   0.000000     0 0    1.10000    0.90000    0.00000 76 "137 CPC Near Swieradow-Zdroj"     1 -1 " "  0  " " 
    138 "138         " 400.0000 " "  0  :  1 1.040746  1.040746  -13.831699    1    4 1.1000 0.9000   400101   391231   0 0   1 0   0.000000   0.000000     0 0    1.10000    0.90000    0.00000 77 "138 CRN"     1 -1 " "  0  " " 
    139 "139         " 400.0000 " "  0  :  1 1.040757  1.040757  -13.827565    1    4 1.1000 0.9000   400101   391231   0 0   1 0   0.000000   0.000000     0 0    1.10000    0.90000    0.00000 77 "138 CRN"     1 -1 " "  0  " " 
    140 "140         " 220.0000 " "  0  :  1 1.102379  1.102379  -23.253231    1    4 1.1000 0.9000   400101   391231   0 0   1 0   0.000000   0.000000     0 0    1.10000    0.90000    0.00000 78 "140 CZE Czerniejewo"     1 -1 " "  0  " " 
    141 "141         " 220.0000 " "  0  :  1 1.101128  1.101128  -25.851110    1    4 1.1000 0.9000   400101   391231   0 0   1 0   0.000000   0.000000     0 0    1.10000    0.90000    0.00000 79 "141 GLN Gol?cino-Goc?aw"     1 -1 " "  0  " " 
    142 "142         " 220.0000 " "  0  :  1 1.101128  1.101128  -25.851110    1    4 1.1000 0.9000   400101   391231   0 0   1 0   0.000000   0.000000     0 0    1.10000    0.90000    0.00000 79 "141 GLN Gol?cino-Goc?aw"     1 -1 " "  0  " " 
    143 "143         " 220.0000 " "  0  :  1 1.095985  1.095985  -24.333739    1    4 1.1000 0.9000   400101   391231   0 0   1 0   0.000000   0.000000     0 0    1.10000    0.90000    0.00000 80 "143 GOR Gorzów Wielkopolski"     1 -1 " "  0  " " 
    144 "144         " 220.0000 " "  0  :  1 1.087470  1.087470  -15.430907    1    4 1.1000 0.9000   400101   391231   0 0   1 0   0.000000   0.000000     0 0    1.10000    0.90000    0.00000 81 "144 WRC/ KLE Near Katy and Scbotya"     1 -1 " "  0  " " 
    145 "145         " 220.0000 " "  0  :  1 1.087470  1.087470  -15.430907    1    4 1.1000 0.9000   400101   391231   0 0   1 0   0.000000   0.000000     0 0    1.10000    0.90000    0.00000 81 "144 WRC/ KLE Near Katy and Scbotya"     1 -1 " "  0  " " 
    146 "Konin       " 220.0000 " "  0  :  2 1.090120 1.090120  -17.412733    1    4 1.1000 0.9000   400101   391231   0 0   1 0   0.000000   0.000000     0 0    1.10000    0.90000    0.00000 82 "Konin"     1 -1 " "  0  " " 
    147 "Konin       " 220.0000 " "  0  :  2 1.090110 1.090158  -17.422314    1    4 1.1000 0.9000   400101   391231   0 0   1 0   0.000000   0.000000     0 0    1.10000    0.90000    0.00000 82 "Konin"     1 -1 " "  0  " " 
    148 "Dolna Odra  " 220.0000 " "  0  :  2 1.090910 1.098897  -24.954073    1    4 1.1000 0.9000   400101   391231   0 0   1 0   0.000000   0.000000     0 0    1.10000    0.90000    0.00000 83 "Dolna Odra"     1 -1 " "  0  " " 
    149 "149         " 220.0000 " "  0  :  1 1.098855  1.098855  -24.968235    1    4 1.1000 0.9000   400101   391231   0 0   1 0   0.000000   0.000000     0 0    1.10000    0.90000    0.00000 83 "Dolna Odra"     1 -1 " "  0  " " 
    150 "Dolna Odra  " 400.0000 " "  0  :  2 1.032460 1.032460  -26.621559    1    4 1.1000 0.9000   400101   391231   0 0   1 0   0.000000   0.000000     0 0    1.10000    0.90000    0.00000 83 "Dolna Odra"     1 -1 " "  0  " " 
    151 "Dolna Odra  " 400.0000 " "  0  :  2 1.032460 1.032437  -26.627567    1    4 1.1000 0.9000   400101   391231   0 0   1 0   0.000000   0.000000     0 0    1.10000    0.90000    0.00000 83 "Dolna Odra"     1 -1 " "  0  " " 
    152 "152         " 220.0000 " "  0  :  1 1.089348  1.089348  -23.300226    1    4 1.1000 0.9000   400101   391231   0 0   1 0   0.000000   0.000000     0 0    1.10000    0.90000    0.00000 84 "152 LES Leszno"     1 -1 " "  0  " " 
    153 "153         " 220.0000 " "  0  :  1 1.086876  1.086876  -22.345544    1    4 1.1000 0.9000   400101   391231   0 0   1 0   0.000000   0.000000     0 0    1.10000    0.90000    0.00000 85 "153 LSN Le?niów"     1 -1 " "  0  " " 
    154 "154         " 220.0000 " "  0  :  1 1.086915  1.086915  -22.339220    1    4 1.1000 0.9000   400101   391231   0 0   1 0   0.000000   0.000000     0 0    1.10000    0.90000    0.00000 85 "153 LSN Le?niów"     1 -1 " "  0  " " 
    155 "Turow       " 220.0000 " "  0  :  2 1.090910 1.090910  -14.600700    1    4 1.1000 0.9000   400101   391231   0 0   1 0   0.000000   0.000000     0 0    1.10000    0.90000    0.00000 86 "Turow MIK"     1 -1 " "  0  " " 
    156 "Turow       " 220.0000 " "  0  :  2 1.090910 1.090910  -14.674661    1    4 1.1000 0.9000   400101   391231   0 0   1 0   0.000000   0.000000     0 0    1.10000    0.90000    0.00000 86 "Turow MIK"     1 -1 " "  0  " " 
    157 "157         " 220.0000 " "  0  :  1 1.090910  1.090910  -14.600700    1    4 1.1000 0.9000   400101   391231   0 0   1 0   0.000000   0.000000     0 0    1.10000    0.90000    0.00000 86 "Turow MIK"     1 -1 " "  0  " " 
    158 "158         " 400.0000 " "  0  :  1 1.033999  1.033999  -13.607069    1    4 1.1000 0.9000   400101   391231   0 0   1 0   0.000000   0.000000     0 0    1.10000    0.90000    0.00000 86 "Turow MIK"     1 -1 " "  0  " " 
    159 "Turow       " 400.0000 " "  0  :  2 1.005350 1.033979  -13.604973    1    4 1.1000 0.9000   400101   391231   0 0   1 0   0.000000   0.000000     0 0    1.10000    0.90000    0.00000 86 "Turow MIK"     1 -1 " "  0  " " 
    160 "160         " 220.0000 " "  0  :  1 1.099975  1.099975  -25.902255    1    4 1.1000 0.9000   400101   391231   0 0   1 0   0.000000   0.000000     0 0    1.10000    0.90000    0.00000 87 "160 MON - Morzyczyn"     1 -1 " "  0  " " 
    161 "161         " 220.0000 " "  0  :  1 1.099975  1.099975  -25.902255    1    4 1.1000 0.9000   400101   391231   0 0   1 0   0.000000   0.000000     0 0    1.10000    0.90000    0.00000 87 "160 MON - Morzyczyn"     1 -1 " "  0  " " 
    162 "162         " 400.0000 " "  0  :  1 1.042347  1.042347  -12.971703    1    4 1.1000 0.9000   400101   391231   0 0   1 0   0.000000   0.000000     0 0    1.10000    0.90000    0.00000 88 "162 OSR Near Ostro Wielkopolski"     1 -1 " "  0  " " 
    163 "163         " 400.0000 " "  0  :  1 1.040613  1.040613  -12.029285    1    4 1.1000 0.9000   400101   391231   0 0   1 0   0.000000   0.000000     0 0    1.10000    0.90000    0.00000 89 "163 PAS Near Trzebnica & Wrclaw"     1 -1 " "  0  " " 
    164 "164         " 400.0000 " "  0  :  1 1.040627  1.040627  -12.035875    1    4 1.1000 0.9000   400101   391231   0 0   1 0   0.000000   0.000000     0 0    1.10000    0.90000    0.00000 89 "163 PAS Near Trzebnica & Wrclaw"     1 -1 " "  0  " " 
    165 "Patnow      " 220.0000 " "  0  :  2 1.090840 1.090840  -17.668738    1    4 1.1000 0.9000   400101   391231   0 0   1 0   0.000000   0.000000     0 0    1.10000    0.90000    0.00000 90 "Patnow"     1 -1 " "  0  " " 
    166 "Patnow      " 220.0000 " "  0  :  2 1.090910 1.090890  -17.686147    1    4 1.1000 0.9000   400101   391231   0 0   1 0   0.000000   0.000000     0 0    1.10000    0.90000    0.00000 90 "Patnow"     1 -1 " "  0  " " 
    167 "167         " 220.0000 " "  0  :  1 1.090811  1.090811  -17.670032    1    4 1.1000 0.9000   400101   391231   0 0   1 0   0.000000   0.000000     0 0    1.10000    0.90000    0.00000 90 "Patnow"     1 -1 " "  0  " " 
    168 "168         " 220.0000 " "  0  :  1 1.110484  1.110484  -28.866939    1    4 1.1000 0.9000   400101   391231   0 0   1 0   0.000000   0.000000     0 0    1.10000    0.90000    0.00000 91 "168 PKW Pila"     1 -1 " "  0  " " 
    169 "169         " 220.0000 " "  0  :  1 1.104096  1.104096  -25.946153    1    4 1.1000 0.9000   400101   391231   0 0   1 0   0.000000   0.000000     0 0    1.10000    0.90000    0.00000 92 "169 PLC Police"     1 -1 " "  0  " " 
    170 "170         " 220.0000 " "  0  :  1 1.109769  1.109769  -24.260842    1    4 1.1000 0.9000   400101   391231   0 0   1 0   0.000000   0.000000     0 0    1.10000    0.90000    0.00000 93 "170 PLE"     1 -1 " "  0  " " 
    171 "171         " 220.0000 " "  0  :  1 1.109658  1.109658  -24.259870    1    4 1.1000 0.9000   400101   391231   0 0   1 0   0.000000   0.000000     0 0    1.10000    0.90000    0.00000 93 "170 PLE"     1 -1 " "  0  " " 
    172 "172         " 400.0000 " "  0  :  1 0.966984  0.966984  -25.379766    1    4 1.1000 0.9000   400101   391231   0 0   1 0   0.000000   0.000000     0 0    1.10000    0.90000    0.00000 93 "170 PLE"     1 -1 " "  0  " " 
    173 "173         " 400.0000 " "  0  :  1 0.966984  0.966984  -25.379766    1    4 1.1000 0.9000   400101   391231   0 0   1 0   0.000000   0.000000     0 0    1.10000    0.90000    0.00000 93 "170 PLE"     1 -1 " "  0  " " 
    174 "174         " 220.0000 " "  0  :  1 1.070815  1.070815  -21.586291    1    4 1.1000 0.9000   400101   391231   0 0   1 0   0.000000   0.000000     0 0    1.10000    0.90000    0.00000 94 "174 POL"     1 -1 " "  0  " " 
    175 "175         " 220.0000 " "  0  :  1 1.070824  1.070824  -21.584304    1    4 1.1000 0.9000   400101   391231   0 0   1 0   0.000000   0.000000     0 0    1.10000    0.90000    0.00000 94 "174 POL"     1 -1 " "  0  " " 
    176 "176         " 220.0000 " "  0  :  1 1.108073  1.108073  -24.495139    1    4 1.1000 0.9000   400101   391231   0 0   1 0   0.000000   0.000000     0 0    1.10000    0.90000    0.00000 95 "176 PPD Swarz?dz"     1 -1 " "  0  " " 
    177 "177         " 220.0000 " "  0  :  1 1.083727  1.083727  -16.213301    1    4 1.1000 0.9000   400101   391231   0 0   1 0   0.000000   0.000000     0 0    1.10000    0.90000    0.00000 96 "177 SWI Near Swiebodzice"     1 -1 " "  0  " " 
    178 "178         " 220.0000 " "  0  :  1 1.083747  1.083747  -16.208130    1    4 1.1000 0.9000   400101   391231   0 0   1 0   0.000000   0.000000     0 0    1.10000    0.90000    0.00000 96 "177 SWI Near Swiebodzice"     1 -1 " "  0  " " 
    179 "179         " 220.0000 " "  0  :  1 1.085466  1.085466  -15.155744    1    4 1.1000 0.9000   400101   391231   0 0   1 0   0.000000   0.000000     0 0    1.10000    0.90000    0.00000 97 "179 ZBK Near Zabkowice Slaskie"     1 -1 " "  0  " " 
    180 "180         " 220.0000 " "  0  :  1 1.085466  1.085466  -15.155744    1    4 1.1000 0.9000   400101   391231   0 0   1 0   0.000000   0.000000     0 0    1.10000    0.90000    0.00000 97 "179 ZBK Near Zabkowice Slaskie"     1 -1 " "  0  " " 
    181 "181         " 220.0000 " "  0  :  1 1.069502  1.069502  -22.404760    1    4 1.1000 0.9000   400101   391231   0 0   1 0   0.000000   0.000000     0 0    1.10000    0.90000    0.00000 98 "181 ZUK ?ukowice"     1 -1 " "  0  " " 
    182 "182         " 220.0000 " "  0  :  1 1.054205  1.054205  -25.406932    1    5 1.1000 0.9000   400101   391231   0 0   1 0   0.000000   0.000000     0 0    1.10000    0.90000    0.00000 99 "182 BYD Bydgoszcz"     1 -1 " "  0  " " 
    183 "183         " 220.0000 " "  0  :  1 1.120508  1.120508  -32.492490    1    5 1.1000 0.9000   400101   391231   0 0   1 0   0.000000   0.000000     0 0    1.10000    0.90000    0.00000 100 "183 DUN Dunowo"     1 -1 " "  0  " " 
    184 "184         " 400.0000 " "  0  :  1 1.039369  1.039369  -32.119247    1    5 1.1000 0.9000   400101   391231   0 0   1 0   0.000000   0.000000     0 0    1.10000    0.90000    0.00000 100 "183 DUN Dunowo"     1 -1 " "  0  " " 
    185 "185         " 400.0000 " "  0  :  1 1.039371  1.039371  -32.112298    1    5 1.1000 0.9000   400101   391231   0 0   1 0   0.000000   0.000000     0 0    1.10000    0.90000    0.00000 100 "183 DUN Dunowo"     1 -1 " "  0  " " 
    186 "186         " 400.0000 " "  0  :  1 1.027433  1.027433  -34.405567    1    5 1.1000 0.9000   400101   391231   0 0   1 0   0.000000   0.000000     0 0    1.10000    0.90000    0.00000 101 "186 GBL Gdansk"     1 -1 " "  0  " " 
    187 "187         " 400.0000 " "  0  :  1 1.027466  1.027466  -34.413146    1    5 1.1000 0.9000   400101   391231   0 0   1 0   0.000000   0.000000     0 0    1.10000    0.90000    0.00000 101 "186 GBL Gdansk"     1 -1 " "  0  " " 
    188 "188         " 220.0000 " "  0  :  1 1.082286  1.082286  -32.645112    1    5 1.1000 0.9000   400101   391231   0 0   1 0   0.000000   0.000000     0 0    1.10000    0.90000    0.00000 102 "188 GDA Gdansk"     1 -1 " "  0  " " 
    189 "189         " 220.0000 " "  0  :  1 1.082348  1.082348  -32.648503    1    5 1.1000 0.9000   400101   391231   0 0   1 0   0.000000   0.000000     0 0    1.10000    0.90000    0.00000 102 "188 GDA Gdansk"     1 -1 " "  0  " " 
    190 "190         " 220.0000 " "  0  :  1 1.054762  1.054762  -27.562777    1    5 1.1000 0.9000   400101   391231   0 0   1 0   0.000000   0.000000     0 0    1.10000    0.90000    0.00000 103 "190 GRU"     1 -1 " "  0  " " 
    191 "191         " 220.0000 " "  0  :  1 1.054806  1.054806  -27.560478    1    5 1.1000 0.9000   400101   391231   0 0   1 0   0.000000   0.000000     0 0    1.10000    0.90000    0.00000 103 "190 GRU"     1 -1 " "  0  " " 
    192 "192         " 400.0000 " "  0  :  1 1.003339  1.003339  -27.070969    1    5 1.1000 0.9000   400101   391231   0 0   1 0   0.000000   0.000000     0 0    1.10000    0.90000    0.00000 103 "190 GRU"     1 -1 " "  0  " " 
    193 "193         " 220.0000 " "  0  :  1 1.060831  1.060831  -25.002250    1    5 1.1000 0.9000   400101   391231   0 0   1 0   0.000000   0.000000     0 0    1.10000    0.90000    0.00000 104 "193 JAS Jastrz?bie"     1 -1 " "  0  " " 
    194 "194         " 220.0000 " "  0  :  1 1.060823  1.060823  -24.999445    1    5 1.1000 0.9000   400101   391231   0 0   1 0   0.000000   0.000000     0 0    1.10000    0.90000    0.00000 104 "193 JAS Jastrz?bie"     1 -1 " "  0  " " 
    195 "195         " 400.0000 " "  0  :  1 1.024569  1.024569  -33.559691    1    5 1.1000 0.9000   400101   391231   0 0   1 0   0.000000   0.000000     0 0    1.10000    0.90000    0.00000 105 "195 OLM Lomy"     1 -1 " "  0  " " 
    196 "196         " 400.0000 " "  0  :  1 1.024541  1.024541  -33.557393    1    5 1.1000 0.9000   400101   391231   0 0   1 0   0.000000   0.000000     0 0    1.10000    0.90000    0.00000 105 "195 OLM Lomy"     1 -1 " "  0  " " 
    197 "197         " 220.0000 " "  0  :  1 1.063735  1.063735  -27.447043    1    5 1.1000 0.9000   400101   391231   0 0   1 0   0.000000   0.000000     0 0    1.10000    0.90000    0.00000 106 "197 OLS Olsztyn"     1 -1 " "  0  " " 
    198 "198         " 220.0000 " "  0  :  1 1.063698  1.063698  -27.440068    1    5 1.1000 0.9000   400101   391231   0 0   1 0   0.000000   0.000000     0 0    1.10000    0.90000    0.00000 106 "197 OLS Olsztyn"     1 -1 " "  0  " " 
    199 "199         " 400.0000 " "  0  :  1 1.039671  1.039671  -33.648011    1    5 1.1000 0.9000   400101   391231   0 0   1 0   0.000000   0.000000     0 0    1.10000    0.90000    0.00000 107 "199 Interconnection to Sweden (SLK)"     1 -1 " "  0  " " 
...